! Minimal hand-authored CHEMKIN mechanism (license-clean fixture).
! Exercises: Arrhenius, Troe falloff + collider list, PLOG, Chebyshev,
! a simple third body, DUPLICATE, and an unsupported (LT) aux line.
ELEMENTS
H O C AR
END

SPECIES
H  H2  O  O2  OH  H2O  CH3  CH4  AR
END

REACTIONS    CAL/MOLE   MOLES
! R1 -- modified Arrhenius, bimolecular, reversible
H + O2 <=> O + OH                        2.000E+14   0.000   16800.0
! R2 -- Troe falloff with a collider-efficiency list
CH3 + H (+M) <=> CH4 (+M)                1.270E+16  -0.630     383.0
    LOW  /  2.477E+33   -4.760   2440.0 /
    TROE /  0.7830   74.00   2941.0   6964.0 /
    H2/2.0/  H2O/6.0/  AR/0.70/
! R3 -- PLOG, bimolecular
OH + H2 <=> H + H2O                      2.160E+08   1.510    3430.0
    PLOG /  0.1    1.000E+08   1.400   3200.0 /
    PLOG /  1.0    2.160E+08   1.510   3430.0 /
    PLOG / 10.0    5.000E+08   1.600   3700.0 /
! R4 -- Chebyshev surface
H2 + O2 <=> OH + OH                      1.000E+00   0.000       0.0
    TCHEB /  300.0   2500.0 /
    PCHEB /  0.01    100.0 /
    CHEB  /  3   3 /
    CHEB  /  1.0E+01   2.0E-01   3.0E-02 /
    CHEB  /  4.0E-01   5.0E-02   6.0E-03 /
    CHEB  /  7.0E-02   8.0E-03   9.0E-04 /
! R5 -- irreversible simple third body
O + O + M => O2 + M                      1.200E+17  -1.000       0.0
! R6 -- DUPLICATE pair (two result rows, distinct rates)
O + OH <=> O2 + H                        1.000E+13   0.000     500.0
    DUP
O + OH <=> O2 + H                        3.000E+12   0.000     700.0
    DUP
! R7 -- unsupported Landau-Teller aux: skipped-with-report
H + OH <=> O + H2                        1.000E+12   0.000    1000.0
    LT / 1.0 2.0 /
END
